data_image0
_chemical_formula_structural       C4H6F2
_chemical_formula_sum              "C4 H6 F2"
_cell_length_a       8.58
_cell_length_b       4.91
_cell_length_c       2.55286
_cell_angle_alpha    90
_cell_angle_beta     90
_cell_angle_gamma    90

_space_group_name_H-M_alt    "P 1"
_space_group_IT_number       1

loop_
  _space_group_symop_operation_xyz
  'x, y, z'

loop_
  _atom_site_type_symbol
  _atom_site_label
  _atom_site_symmetry_multiplicity
  _atom_site_fract_x
  _atom_site_fract_y
  _atom_site_fract_z
  _atom_site_occupancy
  C   C1        1.0  0.03728  0.04806  0.25933  1.0000
  C   C2        1.0  0.96322  0.92474  0.75457  1.0000
  C   C3        1.0  0.46528  0.61482  0.77500  1.0000
  C   C4        1.0  0.53409  0.42206  0.19031  1.0000
  H   H1        1.0  0.16215  0.00765  0.26098  1.0000
  H   H2        1.0  0.83851  0.96660  0.75569  1.0000
  H   H3        1.0  0.98223  0.70542  0.75714  1.0000
  H   H4        1.0  0.34056  0.57743  0.73834  1.0000
  H   H5        1.0  0.48435  0.82451  0.89457  1.0000
  H   H6        1.0  0.65881  0.45942  0.22692  1.0000
  F   F1        1.0  0.01078  0.34763  0.25504  1.0000
  F   F2        1.0  0.50797  0.13520  0.02653  1.0000
