data_image0
_chemical_formula_structural       C4H6F2
_chemical_formula_sum              "C4 H6 F2"
_cell_length_a       8.58
_cell_length_b       4.91
_cell_length_c       2.55286
_cell_angle_alpha    90
_cell_angle_beta     90
_cell_angle_gamma    90

_space_group_name_H-M_alt    "P 1"
_space_group_IT_number       1

loop_
  _space_group_symop_operation_xyz
  'x, y, z'

loop_
  _atom_site_type_symbol
  _atom_site_label
  _atom_site_symmetry_multiplicity
  _atom_site_fract_x
  _atom_site_fract_y
  _atom_site_fract_z
  _atom_site_occupancy
  C   C1        1.0  0.03763  0.04676  0.25845  1.0000
  C   C2        1.0  0.96470  0.92290  0.75533  1.0000
  C   C3        1.0  0.46841  0.59664  0.79361  1.0000
  C   C4        1.0  0.52904  0.37914  0.17746  1.0000
  H   H1        1.0  0.16266  0.00624  0.25759  1.0000
  H   H2        1.0  0.84025  0.96582  0.75856  1.0000
  H   H3        1.0  0.98356  0.70378  0.75693  1.0000
  H   H4        1.0  0.34327  0.57067  0.73958  1.0000
  H   H5        1.0  0.49141  0.79857  0.95304  1.0000
  H   H6        1.0  0.50637  0.17721  0.01745  1.0000
  F   F1        1.0  0.01119  0.34608  0.25603  1.0000
  F   F2        1.0  0.70000  0.41520  0.25265  1.0000
