data_image0
_chemical_formula_structural       C4H6F2
_chemical_formula_sum              "C4 H6 F2"
_cell_length_a       8.58
_cell_length_b       4.91
_cell_length_c       2.55286
_cell_angle_alpha    90
_cell_angle_beta     90
_cell_angle_gamma    90

_space_group_name_H-M_alt    "P 1"
_space_group_IT_number       1

loop_
  _space_group_symop_operation_xyz
  'x, y, z'

loop_
  _atom_site_type_symbol
  _atom_site_label
  _atom_site_symmetry_multiplicity
  _atom_site_fract_x
  _atom_site_fract_y
  _atom_site_fract_z
  _atom_site_occupancy
  C   C1        1.0  0.03838  0.04895  0.25154  1.0000
  C   C2        1.0  0.96579  0.92313  0.75575  1.0000
  C   C3        1.0  0.48603  0.56017  0.73515  1.0000
  C   C4        1.0  0.55054  0.41713  0.25066  1.0000
  H   H1        1.0  0.16354  0.01092  0.25280  1.0000
  H   H2        1.0  0.84063  0.96116  0.75450  1.0000
  H   H3        1.0  0.98683  0.70422  0.75392  1.0000
  H   H4        1.0  0.51276  0.77754  0.71320  1.0000
  H   H5        1.0  0.67543  0.41645  0.24408  1.0000
  H   H6        1.0  0.50129  0.21592  0.23604  1.0000
  F   F1        1.0  0.00962  0.34820  0.25404  1.0000
  F   F2        1.0  0.31297  0.52083  0.75076  1.0000
