data_image0
_chemical_formula_structural       C4H6F2
_chemical_formula_sum              "C4 H6 F2"
_cell_length_a       8.58
_cell_length_b       4.91
_cell_length_c       2.55286
_cell_angle_alpha    90
_cell_angle_beta     90
_cell_angle_gamma    90

_space_group_name_H-M_alt    "P 1"
_space_group_IT_number       1

loop_
  _space_group_symop_operation_xyz
  'x, y, z'

loop_
  _atom_site_type_symbol
  _atom_site_label
  _atom_site_symmetry_multiplicity
  _atom_site_fract_x
  _atom_site_fract_y
  _atom_site_fract_z
  _atom_site_occupancy
  C   C1        1.0  0.03833  0.04896  0.25216  1.0000
  C   C2        1.0  0.96619  0.92335  0.75574  1.0000
  C   C3        1.0  0.46186  0.55360  0.74196  1.0000
  C   C4        1.0  0.52757  0.41603  0.23704  1.0000
  H   H1        1.0  0.16359  0.01119  0.25377  1.0000
  H   H2        1.0  0.84122  0.96228  0.75265  1.0000
  H   H3        1.0  0.98690  0.70428  0.75481  1.0000
  H   H4        1.0  0.33568  0.52826  0.73231  1.0000
  H   H5        1.0  0.65374  0.44141  0.24676  1.0000
  H   H6        1.0  0.49939  0.19962  0.22965  1.0000
  F   F1        1.0  0.00961  0.34797  0.25441  1.0000
  F   F2        1.0  0.50040  0.84942  0.75206  1.0000
